
 OpenBabel07222410163D

141149  0  0  1  0  0  0  0  0999 V2000
    4.8883    0.0039    2.1176 C   0  0  0  0  0  0  0  0  0  0  0  0
    4.0142    0.1665    0.9051 C   0  0  0  0  0  0  0  0  0  0  0  0
    2.7987    0.7483    0.8569 C   0  0  0  0  0  0  0  0  0  0  0  0
    1.9469    1.3491    1.9643 C   0  0  3  0  0  0  0  0  0  0  0  0
    0.6497    0.5467    2.0377 C   0  0  0  0  0  0  0  0  0  0  0  0
   -0.1389    1.0419    3.0998 O   0  0  0  0  0  0  0  0  0  0  0  0
   -0.5427    2.3585    2.9271 C   0  0  3  0  0  0  0  0  0  0  0  0
   -0.5864    3.2199    4.2913 C   0  0  0  0  0  0  0  0  0  0  0  0
   -0.3618    4.8510    3.3987 C   0  0  3  0  0  0  0  0  0  0  0  0
   -0.5213    4.7464    1.5980 C   0  0  0  0  0  0  0  0  0  0  0  0
   -0.8631    2.9949    1.4623 O   0  0  0  0  0  0  0  0  0  0  0  0
   -1.4957    4.2332    2.9904 C   0  0  3  0  0  0  0  0  0  0  0  0
    0.3921    3.4019    2.8677 C   0  0  3  0  0  0  0  0  0  0  0  0
    1.6199    2.8884    1.8038 C   0  0  3  0  0  0  0  0  0  0  0  0
    2.9554    3.6051    2.1810 C   0  0  0  0  0  0  0  0  0  0  0  0
    1.3999    3.1604    0.4185 O   0  0  0  0  0  0  0  0  0  0  0  0
   -2.5102    5.4844    3.2394 C   0  0  0  0  0  0  0  0  0  0  0  0
   -2.2989    6.8879    3.8897 C   0  0  0  0  0  0  0  0  0  0  0  0
   -1.0056    7.1711    4.6701 C   0  0  3  0  0  0  0  0  0  0  0  0
   -0.0107    6.0955    4.1526 C   0  0  3  0  0  0  0  0  0  0  0  0
    0.4037    5.4675    5.4165 C   0  0  0  0  0  0  0  0  0  0  0  0
   -0.8038    5.1048    6.3328 C   0  0  0  0  0  0  0  0  0  0  0  0
   -0.7118    6.1372    7.4093 C   0  0  3  0  0  0  0  0  0  0  0  0
   -0.9845    7.4898    6.4282 C   0  0  3  0  0  0  0  0  0  0  0  0
    0.1100    8.5625    6.7132 C   0  0  0  0  0  0  0  0  0  0  0  0
    0.9142    8.2463    7.9516 C   0  0  0  0  0  0  0  0  0  0  0  0
    1.7441    6.9741    7.8186 C   0  0  3  0  0  0  0  0  0  0  0  0
    0.7545    5.8340    8.2448 C   0  0  0  0  0  0  0  0  0  0  0  0
    0.6495    5.8489    9.7891 C   0  0  0  0  0  0  0  0  0  0  0  0
    1.2201    4.3298    8.0549 C   0  0  0  0  0  0  0  0  0  0  0  0
    3.0225    7.2621    8.4198 O   0  0  0  0  0  0  0  0  0  0  0  0
    3.8767    7.8748    7.3856 C   0  0  3  0  0  0  0  0  0  0  0  0
    5.3082    8.2000    7.8347 C   0  0  3  0  0  0  0  0  0  0  0  0
    5.1574    9.4382    8.7962 C   0  0  3  0  0  0  0  0  0  0  0  0
    4.7427   10.6605    7.9527 C   0  0  3  0  0  0  0  0  0  0  0  0
    3.4304   10.3175    7.2349 C   0  0  0  0  0  0  0  0  0  0  0  0
    3.3392    9.0014    6.6585 O   0  0  0  0  0  0  0  0  0  0  0  0
    5.7159   11.0613    6.9892 O   0  0  0  0  0  0  0  0  0  0  0  0
    6.2831    9.5318    9.6831 O   0  0  0  0  0  0  0  0  0  0  0  0
    6.4620   10.7045   10.4979 C   0  0  3  0  0  0  0  0  0  0  0  0
    7.7472   10.5053   11.3510 C   0  0  3  0  0  0  0  0  0  0  0  0
    7.4734    9.5759   12.5523 C   0  0  3  0  0  0  0  0  0  0  0  0
    6.3289   10.1072   13.4105 C   0  0  3  0  0  0  0  0  0  0  0  0
    5.0927   10.3381   12.5169 C   0  0  3  0  0  0  0  0  0  0  0  0
    5.3532   11.1141   11.3352 O   0  0  0  0  0  0  0  0  0  0  0  0
    3.8944   10.9570   13.2951 C   0  0  0  0  0  0  0  0  0  0  0  0
    4.2479   11.9630   14.2525 O   0  0  0  0  0  0  0  0  0  0  0  0
    4.2579   13.5380   13.8170 S   0  0  0  0  0  0  0  0  0  0  0  0
    5.5337   13.7243   13.1719 O   0  0  0  0  0  0  0  0  0  0  0  0
    2.9966   13.8499   13.2285 O   0  0  0  0  0  0  0  0  0  0  0  0
    4.3720   14.2430   15.2729 O   0  0  0  0  0  0  0  0  0  0  0  0
    6.8423   11.2658   14.0928 O   0  0  0  0  0  0  0  0  0  0  0  0
    8.6425    9.4661   13.3780 O   0  0  0  0  0  0  0  0  0  0  0  0
    8.2576   11.7753   11.7991 O   0  0  0  0  0  0  0  0  0  0  0  0
    6.1523    8.4958    6.6520 O   0  0  0  0  0  0  0  0  0  0  0  0
    6.2255    7.4519    5.6574 C   0  0  3  0  0  0  0  0  0  0  0  0
    6.9489    6.1959    6.1700 C   0  0  3  0  0  0  0  0  0  0  0  0
    8.0122    5.9106    5.1137 C   0  0  3  0  0  0  0  0  0  0  0  0
    7.5227    6.6628    3.8862 C   0  0  3  0  0  0  0  0  0  0  0  0
    6.8866    7.8495    4.4332 O   0  0  0  0  0  0  0  0  0  0  0  0
    6.5646    5.8333    3.0077 C   0  0  0  0  0  0  0  0  0  0  0  0
    6.1511    6.5551    1.8508 O   0  0  0  0  0  0  0  0  0  0  0  0
    8.2231    4.5226    4.9029 O   0  0  0  0  0  0  0  0  0  0  0  0
    6.0762    5.0631    6.3272 O   0  0  0  0  0  0  0  0  0  0  0  0
   -2.3168    8.1472    6.8793 C   0  0  0  0  0  0  0  0  0  0  0  0
    1.2195    6.7546    3.4598 C   0  0  0  0  0  0  0  0  0  0  0  0
    4.5963   -0.3993   -0.3690 C   0  0  0  0  0  0  0  0  0  0  0  0
    4.5425    0.5885    2.9705 H   0  0  0  0  0  0  0  0  0  0  0  0
    5.9058    0.3316    1.8890 H   0  0  0  0  0  0  0  0  0  0  0  0
    4.9250   -1.0508    2.4095 H   0  0  0  0  0  0  0  0  0  0  0  0
    2.3212    0.8072   -0.1239 H   0  0  0  0  0  0  0  0  0  0  0  0
    2.4474    1.2156    2.9397 H   0  0  0  0  0  0  0  0  0  0  0  0
    0.8687   -0.5023    2.2652 H   0  0  0  0  0  0  0  0  0  0  0  0
    0.0792    0.5773    1.1081 H   0  0  0  0  0  0  0  0  0  0  0  0
    0.2104    2.9253    5.0153 H   0  0  0  0  0  0  0  0  0  0  0  0
   -1.5044    3.0992    4.8939 H   0  0  0  0  0  0  0  0  0  0  0  0
    0.4000    4.9494    1.0558 H   0  0  0  0  0  0  0  0  0  0  0  0
   -1.3778    5.1918    1.0677 H   0  0  0  0  0  0  0  0  0  0  0  0
   -2.2401    3.4412    3.2726 H   0  0  0  0  0  0  0  0  0  0  0  0
    1.1627    3.5900    3.6822 H   0  0  0  0  0  0  0  0  0  0  0  0
    3.2906    3.3329    3.1927 H   0  0  0  0  0  0  0  0  0  0  0  0
    2.8669    4.6914    2.1356 H   0  0  0  0  0  0  0  0  0  0  0  0
    3.7652    3.3296    1.4938 H   0  0  0  0  0  0  0  0  0  0  0  0
    0.4824    2.8660    0.2521 H   0  0  0  0  0  0  0  0  0  0  0  0
   -3.3128    5.0593    3.8622 H   0  0  0  0  0  0  0  0  0  0  0  0
   -3.0216    5.6642    2.2806 H   0  0  0  0  0  0  0  0  0  0  0  0
   -3.1844    7.1731    4.4650 H   0  0  0  0  0  0  0  0  0  0  0  0
   -2.3084    7.5951    3.0436 H   0  0  0  0  0  0  0  0  0  0  0  0
   -0.7112    8.1634    4.2914 H   0  0  0  0  0  0  0  0  0  0  0  0
    0.9316    6.2993    5.8026 H   0  0  0  0  0  0  0  0  0  0  0  0
    1.1730    4.7183    5.3297 H   0  0  0  0  0  0  0  0  0  0  0  0
   -0.7965    4.0928    6.7330 H   0  0  0  0  0  0  0  0  0  0  0  0
   -1.7852    5.1822    5.8465 H   0  0  0  0  0  0  0  0  0  0  0  0
   -1.5350    6.0303    8.1277 H   0  0  0  0  0  0  0  0  0  0  0  0
   -0.3384    9.5495    6.8883 H   0  0  0  0  0  0  0  0  0  0  0  0
    0.7717    8.7004    5.8531 H   0  0  0  0  0  0  0  0  0  0  0  0
    0.2300    8.1932    8.8001 H   0  0  0  0  0  0  0  0  0  0  0  0
    1.5331    9.0730    8.2452 H   0  0  0  0  0  0  0  0  0  0  0  0
    2.0716    6.7343    6.8219 H   0  0  0  0  0  0  0  0  0  0  0  0
    0.3351    6.7961   10.2175 H   0  0  0  0  0  0  0  0  0  0  0  0
    1.6440    5.6237   10.2072 H   0  0  0  0  0  0  0  0  0  0  0  0
   -0.0267    5.0699   10.1579 H   0  0  0  0  0  0  0  0  0  0  0  0
    1.3302    3.9576    7.0403 H   0  0  0  0  0  0  0  0  0  0  0  0
    0.4685    3.6559    8.5036 H   0  0  0  0  0  0  0  0  0  0  0  0
    2.1762    4.1113    8.5334 H   0  0  0  0  0  0  0  0  0  0  0  0
    3.9520    7.0842    6.6381 H   0  0  0  0  0  0  0  0  0  0  0  0
    5.7595    7.3681    8.3799 H   0  0  0  0  0  0  0  0  0  0  0  0
    4.3211    9.2246    9.4745 H   0  0  0  0  0  0  0  0  0  0  0  0
    4.5745   11.5381    8.5842 H   0  0  0  0  0  0  0  0  0  0  0  0
    3.2324   11.0201    6.4165 H   0  0  0  0  0  0  0  0  0  0  0  0
    2.6228   10.4764    7.9489 H   0  0  0  0  0  0  0  0  0  0  0  0
    5.8639   10.3043    6.3842 H   0  0  0  0  0  0  0  0  0  0  0  0
    6.6410   11.5475    9.8227 H   0  0  0  0  0  0  0  0  0  0  0  0
    8.5408   10.0556   10.7464 H   0  0  0  0  0  0  0  0  0  0  0  0
    7.2262    8.5684   12.2027 H   0  0  0  0  0  0  0  0  0  0  0  0
    6.0809    9.3924   14.2050 H   0  0  0  0  0  0  0  0  0  0  0  0
    4.7412    9.3628   12.1521 H   0  0  0  0  0  0  0  0  0  0  0  0
    3.4321   10.1650   13.8835 H   0  0  0  0  0  0  0  0  0  0  0  0
    3.1297   11.3375   12.6112 H   0  0  0  0  0  0  0  0  0  0  0  0
    5.3199   14.3753   15.4821 H   0  0  0  0  0  0  0  0  0  0  0  0
    6.2032   11.9886   14.0205 H   0  0  0  0  0  0  0  0  0  0  0  0
    8.7396   10.3567   13.7817 H   0  0  0  0  0  0  0  0  0  0  0  0
    7.5442   12.2308   12.2849 H   0  0  0  0  0  0  0  0  0  0  0  0
    5.2227    7.2204    5.2956 H   0  0  0  0  0  0  0  0  0  0  0  0
    7.4221    6.3655    7.1408 H   0  0  0  0  0  0  0  0  0  0  0  0
    8.9574    6.3639    5.4351 H   0  0  0  0  0  0  0  0  0  0  0  0
    8.3583    6.9916    3.2568 H   0  0  0  0  0  0  0  0  0  0  0  0
    5.6529    5.5507    3.5456 H   0  0  0  0  0  0  0  0  0  0  0  0
    7.0477    4.9144    2.6581 H   0  0  0  0  0  0  0  0  0  0  0  0
    5.9671    7.4726    2.1224 H   0  0  0  0  0  0  0  0  0  0  0  0
    7.5114    4.0527    5.3838 H   0  0  0  0  0  0  0  0  0  0  0  0
    5.3057    5.1459    5.7390 H   0  0  0  0  0  0  0  0  0  0  0  0
   -3.1939    7.5555    6.6147 H   0  0  0  0  0  0  0  0  0  0  0  0
   -2.4422    9.1499    6.4484 H   0  0  0  0  0  0  0  0  0  0  0  0
   -2.3277    8.2761    7.9706 H   0  0  0  0  0  0  0  0  0  0  0  0
    1.2534    6.5369    2.3880 H   0  0  0  0  0  0  0  0  0  0  0  0
    2.1641    6.3885    3.8828 H   0  0  0  0  0  0  0  0  0  0  0  0
    1.2389    7.8455    3.5430 H   0  0  0  0  0  0  0  0  0  0  0  0
    5.5159   -0.9608   -0.1740 H   0  0  0  0  0  0  0  0  0  0  0  0
    4.8307    0.3978   -1.0780 H   0  0  0  0  0  0  0  0  0  0  0  0
    3.8830   -1.0839   -0.8377 H   0  0  0  0  0  0  0  0  0  0  0  0
  1  2  1  0  0  0  0
  1 68  1  0  0  0  0
  1 69  1  0  0  0  0
  1 70  1  0  0  0  0
  2  3  2  0  0  0  0
  2 67  1  0  0  0  0
  3  4  1  0  0  0  0
  3 71  1  0  0  0  0
  4  5  1  0  0  0  0
  4 14  1  0  0  0  0
  4 72  1  0  0  0  0
  5  6  1  0  0  0  0
  5 73  1  0  0  0  0
  5 74  1  0  0  0  0
  6  7  1  0  0  0  0
  7  8  1  0  0  0  0
  7 11  1  0  0  0  0
  7 13  1  0  0  0  0
  8  9  1  0  0  0  0
  8 75  1  0  0  0  0
  8 76  1  0  0  0  0
  9 10  1  0  0  0  0
  9 12  1  0  0  0  0
  9 20  1  0  0  0  0
 10 11  1  0  0  0  0
 10 77  1  0  0  0  0
 10 78  1  0  0  0  0
 12 13  1  0  0  0  0
 12 17  1  0  0  0  0
 12 79  1  0  0  0  0
 13 14  1  0  0  0  0
 13 80  1  0  0  0  0
 14 15  1  0  0  0  0
 14 16  1  0  0  0  0
 15 81  1  0  0  0  0
 15 82  1  0  0  0  0
 15 83  1  0  0  0  0
 16 84  1  0  0  0  0
 17 18  1  0  0  0  0
 17 85  1  0  0  0  0
 17 86  1  0  0  0  0
 18 19  1  0  0  0  0
 18 87  1  0  0  0  0
 18 88  1  0  0  0  0
 19 20  1  0  0  0  0
 19 24  1  0  0  0  0
 19 89  1  0  0  0  0
 20 21  1  0  0  0  0
 20 66  1  0  0  0  0
 21 22  1  0  0  0  0
 21 90  1  0  0  0  0
 21 91  1  0  0  0  0
 22 23  1  0  0  0  0
 22 92  1  0  0  0  0
 22 93  1  0  0  0  0
 23 24  1  0  0  0  0
 23 28  1  0  0  0  0
 23 94  1  0  0  0  0
 24 25  1  0  0  0  0
 24 65  1  0  0  0  0
 25 26  1  0  0  0  0
 25 95  1  0  0  0  0
 25 96  1  0  0  0  0
 26 27  1  0  0  0  0
 26 97  1  0  0  0  0
 26 98  1  0  0  0  0
 27 28  1  0  0  0  0
 27 31  1  0  0  0  0
 27 99  1  0  0  0  0
 28 29  1  0  0  0  0
 28 30  1  0  0  0  0
 29100  1  0  0  0  0
 29101  1  0  0  0  0
 29102  1  0  0  0  0
 30103  1  0  0  0  0
 30104  1  0  0  0  0
 30105  1  0  0  0  0
 31 32  1  0  0  0  0
 32 33  1  0  0  0  0
 32 37  1  0  0  0  0
 32106  1  0  0  0  0
 33 34  1  0  0  0  0
 33 55  1  0  0  0  0
 33107  1  0  0  0  0
 34 35  1  0  0  0  0
 34 39  1  0  0  0  0
 34108  1  0  0  0  0
 35 36  1  0  0  0  0
 35 38  1  0  0  0  0
 35109  1  0  0  0  0
 36 37  1  0  0  0  0
 36110  1  0  0  0  0
 36111  1  0  0  0  0
 38112  1  0  0  0  0
 39 40  1  0  0  0  0
 40 41  1  0  0  0  0
 40 45  1  0  0  0  0
 40113  1  0  0  0  0
 41 42  1  0  0  0  0
 41 54  1  0  0  0  0
 41114  1  0  0  0  0
 42 43  1  0  0  0  0
 42 53  1  0  0  0  0
 42115  1  0  0  0  0
 43 44  1  0  0  0  0
 43 52  1  0  0  0  0
 43116  1  0  0  0  0
 44 45  1  0  0  0  0
 44 46  1  0  0  0  0
 44117  1  0  0  0  0
 46 47  1  0  0  0  0
 46118  1  0  0  0  0
 46119  1  0  0  0  0
 47 48  1  0  0  0  0
 48 49  2  0  0  0  0
 48 50  2  0  0  0  0
 48 51  1  0  0  0  0
 51120  1  0  0  0  0
 52121  1  0  0  0  0
 53122  1  0  0  0  0
 54123  1  0  0  0  0
 55 56  1  0  0  0  0
 56 57  1  0  0  0  0
 56 60  1  0  0  0  0
 56124  1  0  0  0  0
 57 58  1  0  0  0  0
 57 64  1  0  0  0  0
 57125  1  0  0  0  0
 58 59  1  0  0  0  0
 58 63  1  0  0  0  0
 58126  1  0  0  0  0
 59 60  1  0  0  0  0
 59 61  1  0  0  0  0
 59127  1  0  0  0  0
 61 62  1  0  0  0  0
 61128  1  0  0  0  0
 61129  1  0  0  0  0
 62130  1  0  0  0  0
 63131  1  0  0  0  0
 64132  1  0  0  0  0
 65133  1  0  0  0  0
 65134  1  0  0  0  0
 65135  1  0  0  0  0
 66136  1  0  0  0  0
 66137  1  0  0  0  0
 66138  1  0  0  0  0
 67139  1  0  0  0  0
 67140  1  0  0  0  0
 67141  1  0  0  0  0
M  END
$$$$
