
 OpenBabel07222408353D

122127  0  0  1  0  0  0  0  0999 V2000
    1.9981   -5.7546    2.2488 C   0  0  0  0  0  0  0  0  0  0  0  0
    1.2925   -6.6423    1.2554 C   0  0  0  0  0  0  0  0  0  0  0  0
    1.0269   -6.2255   -0.0180 C   0  0  0  0  0  0  0  0  0  0  0  0
    1.4582   -4.8925   -0.4660 C   0  0  0  0  0  0  0  0  0  0  0  0
    1.2334   -4.4425   -1.8998 C   0  0  0  0  0  0  0  0  0  0  0  0
    1.8064   -3.0013   -2.1761 C   0  0  3  0  0  0  0  0  0  0  0  0
    3.2097   -2.9889   -1.5921 C   0  0  0  0  0  0  0  0  0  0  0  0
    1.6504   -2.4963   -3.6545 C   0  0  3  0  0  0  0  0  0  0  0  0
    2.2135   -3.2281   -4.8954 C   0  0  3  0  0  0  0  0  0  0  0  0
    1.5979   -4.5842   -5.0304 C   0  0  0  0  0  0  0  0  0  0  0  0
    2.5663   -5.6988   -5.0291 C   0  0  0  0  0  0  0  0  0  0  0  0
    4.0119   -5.6030   -4.4875 C   0  0  3  0  0  0  0  0  0  0  0  0
    4.8084   -4.1257   -4.6347 C   0  0  3  0  0  0  0  0  0  0  0  0
    3.7553   -2.9302   -5.1017 C   0  0  3  0  0  0  0  0  0  0  0  0
    3.8138   -1.4864   -4.4326 C   0  0  0  0  0  0  0  0  0  0  0  0
    2.3753   -1.2181   -4.0045 C   0  0  0  0  0  0  0  0  0  0  0  0
    1.8264   -0.1250   -4.1214 O   0  0  0  0  0  0  0  0  0  0  0  0
    4.0468   -2.6270   -6.6047 C   0  0  0  0  0  0  0  0  0  0  0  0
    6.0916   -4.2834   -5.5379 C   0  0  0  0  0  0  0  0  0  0  0  0
    6.7075   -5.6327   -5.7660 C   0  0  0  0  0  0  0  0  0  0  0  0
    6.2292   -6.8975   -5.0792 C   0  0  3  0  0  0  0  0  0  0  0  0
    4.6809   -7.0502   -4.9935 C   0  0  3  0  0  0  0  0  0  0  0  0
    4.3949   -8.1360   -3.8803 C   0  0  0  0  0  0  0  0  0  0  0  0
    5.1688   -9.4509   -4.0658 C   0  0  0  0  0  0  0  0  0  0  0  0
    6.6167   -9.2834   -4.5439 C   0  0  3  0  0  0  0  0  0  0  0  0
    6.9763   -8.2012   -5.6581 C   0  0  0  0  0  0  0  0  0  0  0  0
    8.5499   -8.3487   -5.7014 C   0  0  0  0  0  0  0  0  0  0  0  0
    6.7399   -8.2957   -7.2155 C   0  0  0  0  0  0  0  0  0  0  0  0
    7.3647   -8.6510   -3.4675 O   0  0  0  0  0  0  0  0  0  0  0  0
    7.6784   -9.1485   -2.1904 C   0  0  3  0  0  0  0  0  0  0  0  0
    7.6102   -7.9048   -1.2083 C   0  0  3  0  0  0  0  0  0  0  0  0
    8.9650   -7.1414   -1.0146 C   0  0  3  0  0  0  0  0  0  0  0  0
   10.1253   -8.1648   -0.8762 C   0  0  3  0  0  0  0  0  0  0  0  0
   10.0745   -8.8845   -2.2304 C   0  0  3  0  0  0  0  0  0  0  0  0
    8.9509   -9.8053   -2.2344 O   0  0  0  0  0  0  0  0  0  0  0  0
   11.3385   -9.6137   -2.6337 C   0  0  0  0  0  0  0  0  0  0  0  0
   11.2516  -10.1423   -3.9504 O   0  0  0  0  0  0  0  0  0  0  0  0
    9.6882   -8.9875    0.2122 O   0  0  0  0  0  0  0  0  0  0  0  0
   10.4761   -9.6499    1.1720 C   0  0  3  0  0  0  0  0  0  0  0  0
   10.9947  -11.0481    0.7808 C   0  0  3  0  0  0  0  0  0  0  0  0
   11.1504  -11.7852    2.1148 C   0  0  3  0  0  0  0  0  0  0  0  0
   12.1368  -11.0456    3.0358 C   0  0  3  0  0  0  0  0  0  0  0  0
   11.8221   -9.5253    3.0990 C   0  0  0  0  0  0  0  0  0  0  0  0
   11.5408   -8.9323    1.7965 O   0  0  0  0  0  0  0  0  0  0  0  0
   13.4811  -11.2253    2.5667 O   0  0  0  0  0  0  0  0  0  0  0  0
   11.5343  -13.1454    1.9053 O   0  0  0  0  0  0  0  0  0  0  0  0
   12.2994  -10.9668    0.1503 O   0  0  0  0  0  0  0  0  0  0  0  0
    8.9337   -6.3025    0.1594 O   0  0  0  0  0  0  0  0  0  0  0  0
    7.1368   -8.3125    0.0906 O   0  0  0  0  0  0  0  0  0  0  0  0
    3.9530   -7.7055   -6.2829 C   0  0  0  0  0  0  0  0  0  0  0  0
    4.3621   -9.0169   -6.6504 O   0  0  0  0  0  0  0  0  0  0  0  0
    5.6084   -3.6202   -3.3620 C   0  0  0  0  0  0  0  0  0  0  0  0
    1.0562   -2.0872   -1.3694 O   0  0  0  0  0  0  0  0  0  0  0  0
    0.8863   -7.9890    1.7345 C   0  0  0  0  0  0  0  0  0  0  0  0
    2.4437   -4.8560    1.8253 H   0  0  0  0  0  0  0  0  0  0  0  0
    2.8202   -6.3002    2.7290 H   0  0  0  0  0  0  0  0  0  0  0  0
    1.2976   -5.4278    3.0235 H   0  0  0  0  0  0  0  0  0  0  0  0
    0.5132   -6.9054   -0.7308 H   0  0  0  0  0  0  0  0  0  0  0  0
    2.5511   -4.9226   -0.3023 H   0  0  0  0  0  0  0  0  0  0  0  0
    1.0195   -4.1440    0.2075 H   0  0  0  0  0  0  0  0  0  0  0  0
    0.1583   -4.4522   -2.0985 H   0  0  0  0  0  0  0  0  0  0  0  0
    1.7251   -5.1846   -2.5349 H   0  0  0  0  0  0  0  0  0  0  0  0
    3.7206   -3.8703   -1.9777 H   0  0  0  0  0  0  0  0  0  0  0  0
    3.2593   -3.0927   -0.5041 H   0  0  0  0  0  0  0  0  0  0  0  0
    3.7043   -2.0349   -1.7470 H   0  0  0  0  0  0  0  0  0  0  0  0
    0.5803   -2.3205   -3.8191 H   0  0  0  0  0  0  0  0  0  0  0  0
    1.7346   -2.7015   -5.7468 H   0  0  0  0  0  0  0  0  0  0  0  0
    1.0331   -4.6294   -5.9723 H   0  0  0  0  0  0  0  0  0  0  0  0
    0.7927   -4.7515   -4.3107 H   0  0  0  0  0  0  0  0  0  0  0  0
    2.5891   -5.9442   -6.0894 H   0  0  0  0  0  0  0  0  0  0  0  0
    2.0705   -6.5422   -4.5187 H   0  0  0  0  0  0  0  0  0  0  0  0
    3.9266   -5.6972   -3.3989 H   0  0  0  0  0  0  0  0  0  0  0  0
    4.0925   -0.6999   -5.1446 H   0  0  0  0  0  0  0  0  0  0  0  0
    4.4452   -1.3584   -3.5653 H   0  0  0  0  0  0  0  0  0  0  0  0
    4.1311   -3.5334   -7.2056 H   0  0  0  0  0  0  0  0  0  0  0  0
    4.9873   -2.0563   -6.6932 H   0  0  0  0  0  0  0  0  0  0  0  0
    3.2845   -1.9931   -7.0689 H   0  0  0  0  0  0  0  0  0  0  0  0
    6.9338   -3.6915   -5.1403 H   0  0  0  0  0  0  0  0  0  0  0  0
    6.0192   -3.8026   -6.5049 H   0  0  0  0  0  0  0  0  0  0  0  0
    6.6529   -5.7678   -6.8354 H   0  0  0  0  0  0  0  0  0  0  0  0
    7.7533   -5.5492   -5.4554 H   0  0  0  0  0  0  0  0  0  0  0  0
    6.5271   -6.7483   -4.0395 H   0  0  0  0  0  0  0  0  0  0  0  0
    3.3237   -8.3745   -3.8318 H   0  0  0  0  0  0  0  0  0  0  0  0
    4.6449   -7.7312   -2.8918 H   0  0  0  0  0  0  0  0  0  0  0  0
    4.6099  -10.1396   -4.7139 H   0  0  0  0  0  0  0  0  0  0  0  0
    5.1569   -9.9652   -3.0954 H   0  0  0  0  0  0  0  0  0  0  0  0
    7.0188  -10.2621   -4.8335 H   0  0  0  0  0  0  0  0  0  0  0  0
    9.0561   -8.2577   -4.7530 H   0  0  0  0  0  0  0  0  0  0  0  0
    9.0707   -7.6843   -6.3883 H   0  0  0  0  0  0  0  0  0  0  0  0
    8.7646   -9.3842   -6.0418 H   0  0  0  0  0  0  0  0  0  0  0  0
    6.0450   -7.5510   -7.6002 H   0  0  0  0  0  0  0  0  0  0  0  0
    6.4883   -9.2809   -7.5707 H   0  0  0  0  0  0  0  0  0  0  0  0
    7.6483   -8.0025   -7.7803 H   0  0  0  0  0  0  0  0  0  0  0  0
    6.9434   -9.9021   -1.8800 H   0  0  0  0  0  0  0  0  0  0  0  0
    6.8627   -7.1848   -1.5655 H   0  0  0  0  0  0  0  0  0  0  0  0
    9.1430   -6.4635   -1.8582 H   0  0  0  0  0  0  0  0  0  0  0  0
   11.0677   -7.6579   -0.6614 H   0  0  0  0  0  0  0  0  0  0  0  0
    9.9224   -8.1396   -3.0196 H   0  0  0  0  0  0  0  0  0  0  0  0
   12.1982   -8.9129   -2.6249 H   0  0  0  0  0  0  0  0  0  0  0  0
   11.5563  -10.4462   -1.9785 H   0  0  0  0  0  0  0  0  0  0  0  0
   10.7417  -10.9701   -3.8674 H   0  0  0  0  0  0  0  0  0  0  0  0
    9.7137   -9.7957    1.9416 H   0  0  0  0  0  0  0  0  0  0  0  0
   10.3344  -11.5888    0.1043 H   0  0  0  0  0  0  0  0  0  0  0  0
   10.1640  -11.8288    2.6102 H   0  0  0  0  0  0  0  0  0  0  0  0
   12.1155  -11.4873    4.0331 H   0  0  0  0  0  0  0  0  0  0  0  0
   12.6762   -8.9896    3.5228 H   0  0  0  0  0  0  0  0  0  0  0  0
   10.9577   -9.3408    3.7463 H   0  0  0  0  0  0  0  0  0  0  0  0
   13.5146  -10.8935    1.6495 H   0  0  0  0  0  0  0  0  0  0  0  0
   12.4527  -13.1119    1.5592 H   0  0  0  0  0  0  0  0  0  0  0  0
   12.4908  -10.0180    0.0096 H   0  0  0  0  0  0  0  0  0  0  0  0
    8.0065   -6.0473    0.3203 H   0  0  0  0  0  0  0  0  0  0  0  0
    7.9495   -8.5538    0.5821 H   0  0  0  0  0  0  0  0  0  0  0  0
    4.0363   -7.0544   -7.1593 H   0  0  0  0  0  0  0  0  0  0  0  0
    2.8883   -7.8804   -6.0849 H   0  0  0  0  0  0  0  0  0  0  0  0
    4.2216   -9.1292   -7.6033 H   0  0  0  0  0  0  0  0  0  0  0  0
    5.0956   -2.9856   -2.6743 H   0  0  0  0  0  0  0  0  0  0  0  0
    6.3808   -2.8739   -3.6219 H   0  0  0  0  0  0  0  0  0  0  0  0
    6.0898   -4.4221   -2.8024 H   0  0  0  0  0  0  0  0  0  0  0  0
    1.4046   -2.0943   -0.4576 H   0  0  0  0  0  0  0  0  0  0  0  0
    0.9977   -8.0373    2.8301 H   0  0  0  0  0  0  0  0  0  0  0  0
    1.5078   -8.7552    1.2854 H   0  0  0  0  0  0  0  0  0  0  0  0
   -0.1713   -8.1993    1.5184 H   0  0  0  0  0  0  0  0  0  0  0  0
  1  2  1  0  0  0  0
  1 55  1  0  0  0  0
  1 56  1  0  0  0  0
  1 57  1  0  0  0  0
  2  3  2  0  0  0  0
  2 54  1  0  0  0  0
  3  4  1  0  0  0  0
  3 58  1  0  0  0  0
  4  5  1  0  0  0  0
  4 59  1  0  0  0  0
  4 60  1  0  0  0  0
  5  6  1  0  0  0  0
  5 61  1  0  0  0  0
  5 62  1  0  0  0  0
  6  7  1  0  0  0  0
  6  8  1  0  0  0  0
  6 53  1  0  0  0  0
  7 63  1  0  0  0  0
  7 64  1  0  0  0  0
  7 65  1  0  0  0  0
  8  9  1  0  0  0  0
  8 16  1  0  0  0  0
  8 66  1  0  0  0  0
  9 10  1  0  0  0  0
  9 14  1  0  0  0  0
  9 67  1  0  0  0  0
 10 11  1  0  0  0  0
 10 68  1  0  0  0  0
 10 69  1  0  0  0  0
 11 12  1  0  0  0  0
 11 70  1  0  0  0  0
 11 71  1  0  0  0  0
 12 13  1  0  0  0  0
 12 22  1  0  0  0  0
 12 72  1  0  0  0  0
 13 14  1  0  0  0  0
 13 19  1  0  0  0  0
 13 52  1  0  0  0  0
 14 15  1  0  0  0  0
 14 18  1  0  0  0  0
 15 16  1  0  0  0  0
 15 73  1  0  0  0  0
 15 74  1  0  0  0  0
 16 17  2  0  0  0  0
 18 75  1  0  0  0  0
 18 76  1  0  0  0  0
 18 77  1  0  0  0  0
 19 20  1  0  0  0  0
 19 78  1  0  0  0  0
 19 79  1  0  0  0  0
 20 21  1  0  0  0  0
 20 80  1  0  0  0  0
 20 81  1  0  0  0  0
 21 22  1  0  0  0  0
 21 26  1  0  0  0  0
 21 82  1  0  0  0  0
 22 23  1  0  0  0  0
 22 50  1  0  0  0  0
 23 24  1  0  0  0  0
 23 83  1  0  0  0  0
 23 84  1  0  0  0  0
 24 25  1  0  0  0  0
 24 85  1  0  0  0  0
 24 86  1  0  0  0  0
 25 26  1  0  0  0  0
 25 29  1  0  0  0  0
 25 87  1  0  0  0  0
 26 27  1  0  0  0  0
 26 28  1  0  0  0  0
 27 88  1  0  0  0  0
 27 89  1  0  0  0  0
 27 90  1  0  0  0  0
 28 91  1  0  0  0  0
 28 92  1  0  0  0  0
 28 93  1  0  0  0  0
 29 30  1  0  0  0  0
 30 31  1  0  0  0  0
 30 35  1  0  0  0  0
 30 94  1  0  0  0  0
 31 32  1  0  0  0  0
 31 49  1  0  0  0  0
 31 95  1  0  0  0  0
 32 33  1  0  0  0  0
 32 48  1  0  0  0  0
 32 96  1  0  0  0  0
 33 34  1  0  0  0  0
 33 38  1  0  0  0  0
 33 97  1  0  0  0  0
 34 35  1  0  0  0  0
 34 36  1  0  0  0  0
 34 98  1  0  0  0  0
 36 37  1  0  0  0  0
 36 99  1  0  0  0  0
 36100  1  0  0  0  0
 37101  1  0  0  0  0
 38 39  1  0  0  0  0
 39 40  1  0  0  0  0
 39 44  1  0  0  0  0
 39102  1  0  0  0  0
 40 41  1  0  0  0  0
 40 47  1  0  0  0  0
 40103  1  0  0  0  0
 41 42  1  0  0  0  0
 41 46  1  0  0  0  0
 41104  1  0  0  0  0
 42 43  1  0  0  0  0
 42 45  1  0  0  0  0
 42105  1  0  0  0  0
 43 44  1  0  0  0  0
 43106  1  0  0  0  0
 43107  1  0  0  0  0
 45108  1  0  0  0  0
 46109  1  0  0  0  0
 47110  1  0  0  0  0
 48111  1  0  0  0  0
 49112  1  0  0  0  0
 50 51  1  0  0  0  0
 50113  1  0  0  0  0
 50114  1  0  0  0  0
 51115  1  0  0  0  0
 52116  1  0  0  0  0
 52117  1  0  0  0  0
 52118  1  0  0  0  0
 53119  1  0  0  0  0
 54120  1  0  0  0  0
 54121  1  0  0  0  0
 54122  1  0  0  0  0
M  END
$$$$
