
 OpenBabel07222422083D

128133  0  0  1  0  0  0  0  0999 V2000
    4.1596    7.4458   -4.8184 C   0  0  0  0  0  0  0  0  0  0  0  0
    5.4283    6.8830   -4.2471 C   0  0  0  0  0  0  0  0  0  0  0  0
    5.6278    6.1097   -3.1546 C   0  0  0  0  0  0  0  0  0  0  0  0
    4.8504    5.4670   -2.0316 C   0  0  0  0  0  0  0  0  0  0  0  0
    3.4664    5.8430   -1.3395 C   0  0  0  0  0  0  0  0  0  0  0  0
    3.1912    5.1522    0.0886 C   0  0  3  0  0  0  0  0  0  0  0  0
    4.0390    5.9717    1.0822 C   0  0  0  0  0  0  0  0  0  0  0  0
    1.6063    5.1687    0.6256 C   0  0  3  0  0  0  0  0  0  0  0  0
    1.3121    4.2145    1.7834 C   0  0  0  0  0  0  0  0  0  0  0  0
    0.4414    3.0223    1.2183 C   0  0  0  0  0  0  0  0  0  0  0  0
   -0.1583    3.4153   -0.2150 C   0  0  3  0  0  0  0  0  0  0  0  0
    0.1657    4.9749   -0.0831 C   0  0  3  0  0  0  0  0  0  0  0  0
   -0.1439    5.9436   -1.2096 C   0  0  3  0  0  0  0  0  0  0  0  0
   -0.7992    5.2099   -2.3506 C   0  0  0  0  0  0  0  0  0  0  0  0
    0.2156    4.1598   -2.7857 C   0  0  3  0  0  0  0  0  0  0  0  0
    0.3633    2.8661   -1.7083 C   0  0  3  0  0  0  0  0  0  0  0  0
   -0.0765    1.5928   -2.4856 C   0  0  0  0  0  0  0  0  0  0  0  0
    0.8685    1.5283   -3.8043 C   0  0  3  0  0  0  0  0  0  0  0  0
    0.7976    2.8540   -4.8440 C   0  0  3  0  0  0  0  0  0  0  0  0
    0.4548    4.2779   -4.3848 C   0  0  3  0  0  0  0  0  0  0  0  0
   -0.4857    5.0599   -5.5679 C   0  0  0  0  0  0  0  0  0  0  0  0
   -0.5363    4.6096   -7.0519 C   0  0  0  0  0  0  0  0  0  0  0  0
   -0.7954    3.1628   -7.2655 C   0  0  3  0  0  0  0  0  0  0  0  0
   -0.1061    2.4262   -6.0792 C   0  0  0  0  0  0  0  0  0  0  0  0
   -1.4242    2.2271   -5.2220 C   0  0  0  0  0  0  0  0  0  0  0  0
    1.1979    2.0406   -6.8779 C   0  0  0  0  0  0  0  0  0  0  0  0
   -2.2103    2.9110   -7.4860 O   0  0  0  0  0  0  0  0  0  0  0  0
    1.5570    5.4085   -4.4542 C   0  0  0  0  0  0  0  0  0  0  0  0
    0.8750    0.2467   -4.4996 O   0  0  0  0  0  0  0  0  0  0  0  0
    1.5075   -0.9298   -3.9157 C   0  0  3  0  0  0  0  0  0  0  0  0
    2.9552   -0.8230   -3.3557 C   0  0  3  0  0  0  0  0  0  0  0  0
    3.9332   -0.4355   -4.4599 C   0  0  3  0  0  0  0  0  0  0  0  0
    3.8545   -1.3795   -5.6596 C   0  0  3  0  0  0  0  0  0  0  0  0
    2.4060   -1.7433   -6.0326 C   0  0  3  0  0  0  0  0  0  0  0  0
    1.5459   -2.0099   -4.9003 O   0  0  0  0  0  0  0  0  0  0  0  0
    2.4411   -2.9820   -6.9488 C   0  0  0  0  0  0  0  0  0  0  0  0
    1.1426   -3.2916   -7.4413 O   0  0  0  0  0  0  0  0  0  0  0  0
    4.6317   -2.5679   -5.4184 O   0  0  0  0  0  0  0  0  0  0  0  0
    5.2590   -0.5139   -3.9099 O   0  0  0  0  0  0  0  0  0  0  0  0
    3.4222   -2.0657   -2.7716 O   0  0  0  0  0  0  0  0  0  0  0  0
    1.7508    2.3270   -1.3251 C   0  0  0  0  0  0  0  0  0  0  0  0
   -1.0000    6.9849   -0.7527 O   0  0  0  0  0  0  0  0  0  0  0  0
   -1.6166    2.9252   -0.0488 C   0  0  0  0  0  0  0  0  0  0  0  0
    3.9005    3.9209   -0.0493 O   0  0  0  0  0  0  0  0  0  0  0  0
    3.9095    2.7775    0.7612 C   0  0  3  0  0  0  0  0  0  0  0  0
    4.5705    2.7692    2.1493 C   0  0  3  0  0  0  0  0  0  0  0  0
    6.1038    2.7364    2.0676 C   0  0  3  0  0  0  0  0  0  0  0  0
    6.5746    1.6536    1.0813 C   0  0  3  0  0  0  0  0  0  0  0  0
    5.9233    1.9961   -0.2565 C   0  0  3  0  0  0  0  0  0  0  0  0
    4.5035    1.7406   -0.0656 O   0  0  0  0  0  0  0  0  0  0  0  0
    6.3829    1.1471   -1.4392 C   0  0  0  0  0  0  0  0  0  0  0  0
    5.6768    1.5999   -2.6062 O   0  0  0  0  0  0  0  0  0  0  0  0
    6.2275    0.3764    1.5207 O   0  0  0  0  0  0  0  0  0  0  0  0
    6.6404    2.4600    3.3589 O   0  0  0  0  0  0  0  0  0  0  0  0
    4.1021    1.6066    2.8775 O   0  0  0  0  0  0  0  0  0  0  0  0
    6.6556    7.2237   -5.0921 C   0  0  0  0  0  0  0  0  0  0  0  0
    3.3318    7.4174   -4.1109 H   0  0  0  0  0  0  0  0  0  0  0  0
    3.8825    6.9115   -5.7423 H   0  0  0  0  0  0  0  0  0  0  0  0
    4.2947    8.4965   -5.1058 H   0  0  0  0  0  0  0  0  0  0  0  0
    6.6888    5.8226   -3.0258 H   0  0  0  0  0  0  0  0  0  0  0  0
    5.5728    5.4738   -1.2075 H   0  0  0  0  0  0  0  0  0  0  0  0
    4.7469    4.4178   -2.3306 H   0  0  0  0  0  0  0  0  0  0  0  0
    2.7291    5.3873   -1.9570 H   0  0  0  0  0  0  0  0  0  0  0  0
    3.2833    6.9215   -1.3187 H   0  0  0  0  0  0  0  0  0  0  0  0
    3.7043    7.0104    1.1424 H   0  0  0  0  0  0  0  0  0  0  0  0
    5.0978    5.9813    0.7840 H   0  0  0  0  0  0  0  0  0  0  0  0
    4.0273    5.5448    2.0819 H   0  0  0  0  0  0  0  0  0  0  0  0
    1.5270    6.2080    0.9974 H   0  0  0  0  0  0  0  0  0  0  0  0
    0.6620    4.7616    2.5098 H   0  0  0  0  0  0  0  0  0  0  0  0
    2.1660    3.9353    2.3767 H   0  0  0  0  0  0  0  0  0  0  0  0
   -0.3303    2.9110    1.9600 H   0  0  0  0  0  0  0  0  0  0  0  0
    0.9690    2.0841    1.2938 H   0  0  0  0  0  0  0  0  0  0  0  0
   -0.5530    5.2965    0.6992 H   0  0  0  0  0  0  0  0  0  0  0  0
    0.7729    6.4373   -1.5467 H   0  0  0  0  0  0  0  0  0  0  0  0
   -1.0370    5.9315   -3.1357 H   0  0  0  0  0  0  0  0  0  0  0  0
   -1.7601    4.7674   -2.0769 H   0  0  0  0  0  0  0  0  0  0  0  0
    1.1686    4.5351   -2.4513 H   0  0  0  0  0  0  0  0  0  0  0  0
   -1.1505    1.5553   -2.6721 H   0  0  0  0  0  0  0  0  0  0  0  0
    0.0606    0.6731   -1.8933 H   0  0  0  0  0  0  0  0  0  0  0  0
    1.9133    1.6116   -3.5284 H   0  0  0  0  0  0  0  0  0  0  0  0
    1.8762    2.9509   -5.0484 H   0  0  0  0  0  0  0  0  0  0  0  0
   -1.4771    5.2847   -5.1905 H   0  0  0  0  0  0  0  0  0  0  0  0
   -0.0441    6.0416   -5.7938 H   0  0  0  0  0  0  0  0  0  0  0  0
    0.4229    4.7955   -7.5415 H   0  0  0  0  0  0  0  0  0  0  0  0
   -1.2793    5.1927   -7.6114 H   0  0  0  0  0  0  0  0  0  0  0  0
   -0.4346    2.8324   -8.2523 H   0  0  0  0  0  0  0  0  0  0  0  0
   -1.9995    1.3215   -5.3287 H   0  0  0  0  0  0  0  0  0  0  0  0
   -2.0900    3.0906   -5.3373 H   0  0  0  0  0  0  0  0  0  0  0  0
   -1.3126    2.4570   -4.1729 H   0  0  0  0  0  0  0  0  0  0  0  0
    1.1140    1.7346   -7.9182 H   0  0  0  0  0  0  0  0  0  0  0  0
    1.9284    1.3894   -6.3947 H   0  0  0  0  0  0  0  0  0  0  0  0
    1.7600    3.0115   -6.9933 H   0  0  0  0  0  0  0  0  0  0  0  0
   -2.7361    3.6573   -7.1851 H   0  0  0  0  0  0  0  0  0  0  0  0
    2.2430    5.4794   -3.6356 H   0  0  0  0  0  0  0  0  0  0  0  0
    1.0581    6.3949   -4.3653 H   0  0  0  0  0  0  0  0  0  0  0  0
    2.1533    5.3924   -5.3642 H   0  0  0  0  0  0  0  0  0  0  0  0
    0.8537   -1.2999   -3.1167 H   0  0  0  0  0  0  0  0  0  0  0  0
    3.0252   -0.1124   -2.5380 H   0  0  0  0  0  0  0  0  0  0  0  0
    3.7324    0.5928   -4.7783 H   0  0  0  0  0  0  0  0  0  0  0  0
    4.3379   -0.8973   -6.5176 H   0  0  0  0  0  0  0  0  0  0  0  0
    1.9412   -0.9173   -6.5751 H   0  0  0  0  0  0  0  0  0  0  0  0
    2.8120   -3.8739   -6.4305 H   0  0  0  0  0  0  0  0  0  0  0  0
    3.0924   -2.7973   -7.8127 H   0  0  0  0  0  0  0  0  0  0  0  0
    0.5933   -3.4079   -6.6445 H   0  0  0  0  0  0  0  0  0  0  0  0
    4.3664   -2.9052   -4.5413 H   0  0  0  0  0  0  0  0  0  0  0  0
    5.6367    0.3921   -3.8981 H   0  0  0  0  0  0  0  0  0  0  0  0
    4.3924   -1.9432   -2.6700 H   0  0  0  0  0  0  0  0  0  0  0  0
    2.4839    3.1022   -1.4031 H   0  0  0  0  0  0  0  0  0  0  0  0
    2.1610    1.4677   -1.8293 H   0  0  0  0  0  0  0  0  0  0  0  0
    1.6670    1.8082   -0.3759 H   0  0  0  0  0  0  0  0  0  0  0  0
   -0.9110    7.7249   -1.3795 H   0  0  0  0  0  0  0  0  0  0  0  0
   -2.1322    3.4187    0.7839 H   0  0  0  0  0  0  0  0  0  0  0  0
   -1.5957    1.8495    0.1942 H   0  0  0  0  0  0  0  0  0  0  0  0
   -2.2307    3.0263   -0.9425 H   0  0  0  0  0  0  0  0  0  0  0  0
    2.9014    2.4441    0.9163 H   0  0  0  0  0  0  0  0  0  0  0  0
    4.2580    3.6170    2.7553 H   0  0  0  0  0  0  0  0  0  0  0  0
    6.4551    3.7253    1.7556 H   0  0  0  0  0  0  0  0  0  0  0  0
    7.6964    1.7070    0.9782 H   0  0  0  0  0  0  0  0  0  0  0  0
    6.0633    3.0445   -0.5528 H   0  0  0  0  0  0  0  0  0  0  0  0
    6.1483    0.0860   -1.3076 H   0  0  0  0  0  0  0  0  0  0  0  0
    7.4540    1.2646   -1.6233 H   0  0  0  0  0  0  0  0  0  0  0  0
    4.7422    1.6522   -2.3210 H   0  0  0  0  0  0  0  0  0  0  0  0
    5.6095   -0.0086    0.8699 H   0  0  0  0  0  0  0  0  0  0  0  0
    6.2135    1.6209    3.6340 H   0  0  0  0  0  0  0  0  0  0  0  0
    4.3212    0.8177    2.3465 H   0  0  0  0  0  0  0  0  0  0  0  0
    6.4622    8.0623   -5.7818 H   0  0  0  0  0  0  0  0  0  0  0  0
    6.9239    6.3603   -5.7208 H   0  0  0  0  0  0  0  0  0  0  0  0
    7.4900    7.5085   -4.4785 H   0  0  0  0  0  0  0  0  0  0  0  0
  1  2  1  0  0  0  0
  1 57  1  0  0  0  0
  1 58  1  0  0  0  0
  1 59  1  0  0  0  0
  2  3  2  0  0  0  0
  2 56  1  0  0  0  0
  3  4  1  0  0  0  0
  3 60  1  0  0  0  0
  4  5  1  0  0  0  0
  4 61  1  0  0  0  0
  4 62  1  0  0  0  0
  5  6  1  0  0  0  0
  5 63  1  0  0  0  0
  5 64  1  0  0  0  0
  6  7  1  0  0  0  0
  6  8  1  0  0  0  0
  6 44  1  0  0  0  0
  7 65  1  0  0  0  0
  7 66  1  0  0  0  0
  7 67  1  0  0  0  0
  8  9  1  0  0  0  0
  8 12  1  0  0  0  0
  8 68  1  0  0  0  0
  9 10  1  0  0  0  0
  9 69  1  0  0  0  0
  9 70  1  0  0  0  0
 10 11  1  0  0  0  0
 10 71  1  0  0  0  0
 10 72  1  0  0  0  0
 11 12  1  0  0  0  0
 11 16  1  0  0  0  0
 11 43  1  0  0  0  0
 12 13  1  0  0  0  0
 12 73  1  0  0  0  0
 13 14  1  0  0  0  0
 13 42  1  0  0  0  0
 13 74  1  0  0  0  0
 14 15  1  0  0  0  0
 14 75  1  0  0  0  0
 14 76  1  0  0  0  0
 15 16  1  0  0  0  0
 15 20  1  0  0  0  0
 15 77  1  0  0  0  0
 16 17  1  0  0  0  0
 16 41  1  0  0  0  0
 17 18  1  0  0  0  0
 17 78  1  0  0  0  0
 17 79  1  0  0  0  0
 18 19  1  0  0  0  0
 18 29  1  0  0  0  0
 18 80  1  0  0  0  0
 19 20  1  0  0  0  0
 19 24  1  0  0  0  0
 19 81  1  0  0  0  0
 20 21  1  0  0  0  0
 20 28  1  0  0  0  0
 21 22  1  0  0  0  0
 21 82  1  0  0  0  0
 21 83  1  0  0  0  0
 22 23  1  0  0  0  0
 22 84  1  0  0  0  0
 22 85  1  0  0  0  0
 23 24  1  0  0  0  0
 23 27  1  0  0  0  0
 23 86  1  0  0  0  0
 24 25  1  0  0  0  0
 24 26  1  0  0  0  0
 25 87  1  0  0  0  0
 25 88  1  0  0  0  0
 25 89  1  0  0  0  0
 26 90  1  0  0  0  0
 26 91  1  0  0  0  0
 26 92  1  0  0  0  0
 27 93  1  0  0  0  0
 28 94  1  0  0  0  0
 28 95  1  0  0  0  0
 28 96  1  0  0  0  0
 29 30  1  0  0  0  0
 30 31  1  0  0  0  0
 30 35  1  0  0  0  0
 30 97  1  0  0  0  0
 31 32  1  0  0  0  0
 31 40  1  0  0  0  0
 31 98  1  0  0  0  0
 32 33  1  0  0  0  0
 32 39  1  0  0  0  0
 32 99  1  0  0  0  0
 33 34  1  0  0  0  0
 33 38  1  0  0  0  0
 33100  1  0  0  0  0
 34 35  1  0  0  0  0
 34 36  1  0  0  0  0
 34101  1  0  0  0  0
 36 37  1  0  0  0  0
 36102  1  0  0  0  0
 36103  1  0  0  0  0
 37104  1  0  0  0  0
 38105  1  0  0  0  0
 39106  1  0  0  0  0
 40107  1  0  0  0  0
 41108  1  0  0  0  0
 41109  1  0  0  0  0
 41110  1  0  0  0  0
 42111  1  0  0  0  0
 43112  1  0  0  0  0
 43113  1  0  0  0  0
 43114  1  0  0  0  0
 44 45  1  0  0  0  0
 45 46  1  0  0  0  0
 45 50  1  0  0  0  0
 45115  1  0  0  0  0
 46 47  1  0  0  0  0
 46 55  1  0  0  0  0
 46116  1  0  0  0  0
 47 48  1  0  0  0  0
 47 54  1  0  0  0  0
 47117  1  0  0  0  0
 48 49  1  0  0  0  0
 48 53  1  0  0  0  0
 48118  1  0  0  0  0
 49 50  1  0  0  0  0
 49 51  1  0  0  0  0
 49119  1  0  0  0  0
 51 52  1  0  0  0  0
 51120  1  0  0  0  0
 51121  1  0  0  0  0
 52122  1  0  0  0  0
 53123  1  0  0  0  0
 54124  1  0  0  0  0
 55125  1  0  0  0  0
 56126  1  0  0  0  0
 56127  1  0  0  0  0
 56128  1  0  0  0  0
M  END
$$$$
