
 OpenBabel07222422563D

106110  0  0  1  0  0  0  0  0999 V2000
    5.4855   -1.4031    2.2198 C   0  0  0  0  0  0  0  0  0  0  0  0
    6.6303   -0.6802    2.8670 C   0  0  0  0  0  0  0  0  0  0  0  0
    6.6198    0.5924    3.3102 C   0  0  0  0  0  0  0  0  0  0  0  0
    5.5347    1.6277    3.3081 C   0  0  0  0  0  0  0  0  0  0  0  0
    4.0756    1.2941    3.6880 C   0  0  0  0  0  0  0  0  0  0  0  0
    3.5728    0.9569    5.0883 C   0  0  3  0  0  0  0  0  0  0  0  0
    4.0616    2.0704    6.0256 C   0  0  0  0  0  0  0  0  0  0  0  0
    1.9866    0.6601    5.2047 C   0  0  3  0  0  0  0  0  0  0  0  0
    1.4994   -0.5110    4.3422 C   0  0  0  0  0  0  0  0  0  0  0  0
    1.0896    0.1076    2.9930 C   0  0  0  0  0  0  0  0  0  0  0  0
    0.6150    1.6130    3.2408 C   0  0  3  0  0  0  0  0  0  0  0  0
    0.8040    1.6270    4.8301 C   0  0  3  0  0  0  0  0  0  0  0  0
    0.7674    2.9159    5.6376 C   0  0  3  0  0  0  0  0  0  0  0  0
    0.3610    4.0695    4.7687 C   0  0  0  0  0  0  0  0  0  0  0  0
    1.4191    4.1941    3.6697 C   0  0  3  0  0  0  0  0  0  0  0  0
    1.3107    2.9028    2.4761 C   0  0  3  0  0  0  0  0  0  0  0  0
    0.6407    3.6039    1.2883 C   0  0  0  0  0  0  0  0  0  0  0  0
    1.6226    4.7560    0.9214 C   0  0  0  0  0  0  0  0  0  0  0  0
    1.7918    5.9361    1.9138 C   0  0  3  0  0  0  0  0  0  0  0  0
    1.6587    5.8426    3.4289 C   0  0  3  0  0  0  0  0  0  0  0  0
    0.8501    7.3417    3.9103 C   0  0  0  0  0  0  0  0  0  0  0  0
    0.2168    8.5292    2.9356 C   0  0  0  0  0  0  0  0  0  0  0  0
   -0.0556    8.1940    1.4405 C   0  0  3  0  0  0  0  0  0  0  0  0
    0.7133    6.8850    1.2059 C   0  0  0  0  0  0  0  0  0  0  0  0
   -0.5595    6.1306    2.1218 C   0  0  0  0  0  0  0  0  0  0  0  0
    2.0656    7.8336    0.9626 C   0  0  0  0  0  0  0  0  0  0  0  0
   -1.4587    8.1894    1.0344 O   0  0  0  0  0  0  0  0  0  0  0  0
   -1.8515    7.3453   -0.0486 C   0  0  3  0  0  0  0  0  0  0  0  0
   -1.8321    7.8684   -1.4680 C   0  0  3  0  0  0  0  0  0  0  0  0
   -2.9239    8.9202   -1.7263 C   0  0  3  0  0  0  0  0  0  0  0  0
   -4.2906    8.5801   -1.0459 C   0  0  3  0  0  0  0  0  0  0  0  0
   -4.1529    7.8778    0.3264 C   0  0  3  0  0  0  0  0  0  0  0  0
   -3.1807    6.8314    0.2426 O   0  0  0  0  0  0  0  0  0  0  0  0
   -5.4708    7.2950    0.8266 C   0  0  0  0  0  0  0  0  0  0  0  0
   -5.2653    6.6803    2.1004 O   0  0  0  0  0  0  0  0  0  0  0  0
   -5.1456    7.8448   -1.9367 O   0  0  0  0  0  0  0  0  0  0  0  0
   -3.1248    8.9942   -3.1564 O   0  0  0  0  0  0  0  0  0  0  0  0
   -2.0244    6.7941   -2.3985 O   0  0  0  0  0  0  0  0  0  0  0  0
    2.7986    6.0646    4.5284 C   0  0  0  0  0  0  0  0  0  0  0  0
    2.5133    2.3368    1.5519 C   0  0  0  0  0  0  0  0  0  0  0  0
   -0.1413    2.8070    6.7318 O   0  0  0  0  0  0  0  0  0  0  0  0
   -0.8775    1.5999    2.7949 C   0  0  0  0  0  0  0  0  0  0  0  0
    4.2366   -0.2433    5.5042 O   0  0  0  0  0  0  0  0  0  0  0  0
    7.9084   -1.4765    2.9574 C   0  0  0  0  0  0  0  0  0  0  0  0
    4.7992   -0.7299    1.7017 H   0  0  0  0  0  0  0  0  0  0  0  0
    4.9344   -1.9793    2.9696 H   0  0  0  0  0  0  0  0  0  0  0  0
    5.8523   -2.1009    1.4577 H   0  0  0  0  0  0  0  0  0  0  0  0
    7.5721    0.9940    3.6618 H   0  0  0  0  0  0  0  0  0  0  0  0
    5.5321    2.0404    2.2876 H   0  0  0  0  0  0  0  0  0  0  0  0
    5.8761    2.4694    3.9212 H   0  0  0  0  0  0  0  0  0  0  0  0
    3.7393    0.5341    2.9922 H   0  0  0  0  0  0  0  0  0  0  0  0
    3.5676    2.2326    3.5266 H   0  0  0  0  0  0  0  0  0  0  0  0
    3.6365    3.0431    5.7774 H   0  0  0  0  0  0  0  0  0  0  0  0
    5.1479    2.2004    5.9504 H   0  0  0  0  0  0  0  0  0  0  0  0
    3.8601    1.8323    7.0712 H   0  0  0  0  0  0  0  0  0  0  0  0
    1.8464    0.3686    6.2577 H   0  0  0  0  0  0  0  0  0  0  0  0
    0.5998   -0.9487    4.8052 H   0  0  0  0  0  0  0  0  0  0  0  0
    2.2144   -1.3279    4.2442 H   0  0  0  0  0  0  0  0  0  0  0  0
    0.2883   -0.5052    2.5607 H   0  0  0  0  0  0  0  0  0  0  0  0
    1.9229   -0.0634    2.3303 H   0  0  0  0  0  0  0  0  0  0  0  0
   -0.0932    1.0961    5.1962 H   0  0  0  0  0  0  0  0  0  0  0  0
    1.7228    3.1192    6.0989 H   0  0  0  0  0  0  0  0  0  0  0  0
    0.3095    4.9673    5.3995 H   0  0  0  0  0  0  0  0  0  0  0  0
   -0.6533    3.9444    4.3815 H   0  0  0  0  0  0  0  0  0  0  0  0
    2.3661    3.8498    4.0901 H   0  0  0  0  0  0  0  0  0  0  0  0
   -0.3926    3.8865    1.4463 H   0  0  0  0  0  0  0  0  0  0  0  0
    0.5270    2.9419    0.4152 H   0  0  0  0  0  0  0  0  0  0  0  0
    1.3646    5.1106   -0.0857 H   0  0  0  0  0  0  0  0  0  0  0  0
    2.6549    4.4248    0.7572 H   0  0  0  0  0  0  0  0  0  0  0  0
    2.8763    6.1311    1.8302 H   0  0  0  0  0  0  0  0  0  0  0  0
    0.1427    7.1433    4.7221 H   0  0  0  0  0  0  0  0  0  0  0  0
    1.6275    7.9692    4.3833 H   0  0  0  0  0  0  0  0  0  0  0  0
    0.9388    9.3620    2.9363 H   0  0  0  0  0  0  0  0  0  0  0  0
   -0.6863    8.9392    3.4004 H   0  0  0  0  0  0  0  0  0  0  0  0
    0.2439    9.0437    0.8212 H   0  0  0  0  0  0  0  0  0  0  0  0
   -1.3669    5.7349    1.5134 H   0  0  0  0  0  0  0  0  0  0  0  0
   -1.0877    6.7187    2.8856 H   0  0  0  0  0  0  0  0  0  0  0  0
   -0.3161    5.2510    2.6843 H   0  0  0  0  0  0  0  0  0  0  0  0
    1.9481    8.7429    0.3630 H   0  0  0  0  0  0  0  0  0  0  0  0
    2.8089    7.3092    0.3362 H   0  0  0  0  0  0  0  0  0  0  0  0
    2.5721    8.1554    1.8941 H   0  0  0  0  0  0  0  0  0  0  0  0
   -1.2294    6.4493   -0.1484 H   0  0  0  0  0  0  0  0  0  0  0  0
   -0.8651    8.3209   -1.7112 H   0  0  0  0  0  0  0  0  0  0  0  0
   -2.5995    9.8821   -1.3564 H   0  0  0  0  0  0  0  0  0  0  0  0
   -4.8202    9.5235   -0.9047 H   0  0  0  0  0  0  0  0  0  0  0  0
   -3.8058    8.6164    1.0656 H   0  0  0  0  0  0  0  0  0  0  0  0
   -5.8538    6.5233    0.1557 H   0  0  0  0  0  0  0  0  0  0  0  0
   -6.2302    8.0750    0.9477 H   0  0  0  0  0  0  0  0  0  0  0  0
   -4.5284    6.0536    1.9620 H   0  0  0  0  0  0  0  0  0  0  0  0
   -4.5684    7.3463   -2.5431 H   0  0  0  0  0  0  0  0  0  0  0  0
   -3.9596    9.4844   -3.3060 H   0  0  0  0  0  0  0  0  0  0  0  0
   -2.2375    7.2060   -3.2699 H   0  0  0  0  0  0  0  0  0  0  0  0
    3.4608    5.2215    4.7473 H   0  0  0  0  0  0  0  0  0  0  0  0
    2.3012    6.2302    5.5137 H   0  0  0  0  0  0  0  0  0  0  0  0
    3.4301    6.9382    4.3540 H   0  0  0  0  0  0  0  0  0  0  0  0
    3.5011    2.7101    1.7756 H   0  0  0  0  0  0  0  0  0  0  0  0
    2.4355    2.5590    0.4705 H   0  0  0  0  0  0  0  0  0  0  0  0
    2.4925    1.2658    1.3945 H   0  0  0  0  0  0  0  0  0  0  0  0
    0.0188    3.5660    7.3225 H   0  0  0  0  0  0  0  0  0  0  0  0
   -1.4589    0.8366    3.3228 H   0  0  0  0  0  0  0  0  0  0  0  0
   -0.9332    1.3500    1.7265 H   0  0  0  0  0  0  0  0  0  0  0  0
   -1.3816    2.5532    2.9310 H   0  0  0  0  0  0  0  0  0  0  0  0
    5.1858   -0.1482    5.3055 H   0  0  0  0  0  0  0  0  0  0  0  0
    7.7010   -2.5484    3.0372 H   0  0  0  0  0  0  0  0  0  0  0  0
    8.4947   -1.1939    3.8377 H   0  0  0  0  0  0  0  0  0  0  0  0
    8.5191   -1.3097    2.0634 H   0  0  0  0  0  0  0  0  0  0  0  0
  1  2  1  0  0  0  0
  1 45  1  0  0  0  0
  1 46  1  0  0  0  0
  1 47  1  0  0  0  0
  2  3  2  0  0  0  0
  2 44  1  0  0  0  0
  3  4  1  0  0  0  0
  3 48  1  0  0  0  0
  4  5  1  0  0  0  0
  4 49  1  0  0  0  0
  4 50  1  0  0  0  0
  5  6  1  0  0  0  0
  5 51  1  0  0  0  0
  5 52  1  0  0  0  0
  6  7  1  0  0  0  0
  6  8  1  0  0  0  0
  6 43  1  0  0  0  0
  7 53  1  0  0  0  0
  7 54  1  0  0  0  0
  7 55  1  0  0  0  0
  8  9  1  0  0  0  0
  8 12  1  0  0  0  0
  8 56  1  0  0  0  0
  9 10  1  0  0  0  0
  9 57  1  0  0  0  0
  9 58  1  0  0  0  0
 10 11  1  0  0  0  0
 10 59  1  0  0  0  0
 10 60  1  0  0  0  0
 11 12  1  0  0  0  0
 11 16  1  0  0  0  0
 11 42  1  0  0  0  0
 12 13  1  0  0  0  0
 12 61  1  0  0  0  0
 13 14  1  0  0  0  0
 13 41  1  0  0  0  0
 13 62  1  0  0  0  0
 14 15  1  0  0  0  0
 14 63  1  0  0  0  0
 14 64  1  0  0  0  0
 15 16  1  0  0  0  0
 15 20  1  0  0  0  0
 15 65  1  0  0  0  0
 16 17  1  0  0  0  0
 16 40  1  0  0  0  0
 17 18  1  0  0  0  0
 17 66  1  0  0  0  0
 17 67  1  0  0  0  0
 18 19  1  0  0  0  0
 18 68  1  0  0  0  0
 18 69  1  0  0  0  0
 19 20  1  0  0  0  0
 19 24  1  0  0  0  0
 19 70  1  0  0  0  0
 20 21  1  0  0  0  0
 20 39  1  0  0  0  0
 21 22  1  0  0  0  0
 21 71  1  0  0  0  0
 21 72  1  0  0  0  0
 22 23  1  0  0  0  0
 22 73  1  0  0  0  0
 22 74  1  0  0  0  0
 23 24  1  0  0  0  0
 23 27  1  0  0  0  0
 23 75  1  0  0  0  0
 24 25  1  0  0  0  0
 24 26  1  0  0  0  0
 25 76  1  0  0  0  0
 25 77  1  0  0  0  0
 25 78  1  0  0  0  0
 26 79  1  0  0  0  0
 26 80  1  0  0  0  0
 26 81  1  0  0  0  0
 27 28  1  0  0  0  0
 28 29  1  0  0  0  0
 28 33  1  0  0  0  0
 28 82  1  0  0  0  0
 29 30  1  0  0  0  0
 29 38  1  0  0  0  0
 29 83  1  0  0  0  0
 30 31  1  0  0  0  0
 30 37  1  0  0  0  0
 30 84  1  0  0  0  0
 31 32  1  0  0  0  0
 31 36  1  0  0  0  0
 31 85  1  0  0  0  0
 32 33  1  0  0  0  0
 32 34  1  0  0  0  0
 32 86  1  0  0  0  0
 34 35  1  0  0  0  0
 34 87  1  0  0  0  0
 34 88  1  0  0  0  0
 35 89  1  0  0  0  0
 36 90  1  0  0  0  0
 37 91  1  0  0  0  0
 38 92  1  0  0  0  0
 39 93  1  0  0  0  0
 39 94  1  0  0  0  0
 39 95  1  0  0  0  0
 40 96  1  0  0  0  0
 40 97  1  0  0  0  0
 40 98  1  0  0  0  0
 41 99  1  0  0  0  0
 42100  1  0  0  0  0
 42101  1  0  0  0  0
 42102  1  0  0  0  0
 43103  1  0  0  0  0
 44104  1  0  0  0  0
 44105  1  0  0  0  0
 44106  1  0  0  0  0
M  END
$$$$
